# generated using pymatgen
data_LiMnO2
_symmetry_space_group_name_H-M   'P 1'
_cell_length_a   9.89130000
_cell_length_b   9.86820000
_cell_length_c   8.93220000
_cell_angle_alpha   90.00000000
_cell_angle_beta   90.00000000
_cell_angle_gamma   90.00000000
_symmetry_Int_Tables_number   1
_chemical_formula_structural   LiMnO2
_chemical_formula_sum   'Li24 Mn24 O48'
_cell_volume   871.86602759
_cell_formula_units_Z   24
loop_
 _symmetry_equiv_pos_site_id
 _symmetry_equiv_pos_as_xyz
  1  'x, y, z'
loop_
 _atom_site_type_symbol
 _atom_site_label
 _atom_site_symmetry_multiplicity
 _atom_site_fract_x
 _atom_site_fract_y
 _atom_site_fract_z
 _atom_site_occupancy
  Li  Li0  1  0.57385000  0.47843000  0.25002000  1.0
  Li  Li1  1  0.89053000  0.22843000  0.41668000  1.0
  Li  Li2  1  0.39053000  0.04394000  0.75002000  1.0
  Li  Li3  1  0.89053000  0.72843000  0.41668000  1.0
  Li  Li4  1  0.07385000  0.79394000  0.25002000  1.0
  Li  Li5  1  0.07385000  0.29394000  0.25002000  1.0
  Li  Li6  1  0.89053000  0.22843000  0.08335000  1.0
  Li  Li7  1  0.39053000  0.54394000  0.75002000  1.0
  Li  Li8  1  0.89053000  0.22843000  0.75002000  1.0
  Li  Li9  1  0.07385000  0.29394000  0.58335000  1.0
  Li  Li10  1  0.89053000  0.72843000  0.75002000  1.0
  Li  Li11  1  0.57385000  0.47843000  0.91668000  1.0
  Li  Li12  1  0.07385000  0.79394000  0.91668000  1.0
  Li  Li13  1  0.39053000  0.04394000  0.41668000  1.0
  Li  Li14  1  0.39053000  0.54394000  0.08335000  1.0
  Li  Li15  1  0.57385000  0.47843000  0.58335000  1.0
  Li  Li16  1  0.89053000  0.72843000  0.08335000  1.0
  Li  Li17  1  0.39053000  0.54394000  0.41668000  1.0
  Li  Li18  1  0.07385000  0.79394000  0.58335000  1.0
  Li  Li19  1  0.57385000  0.97843000  0.91668000  1.0
  Li  Li20  1  0.39053000  0.04394000  0.08335000  1.0
  Li  Li21  1  0.57385000  0.97843000  0.25002000  1.0
  Li  Li22  1  0.07385000  0.29394000  0.91668000  1.0
  Li  Li23  1  0.57385000  0.97843000  0.58335000  1.0
  Mn  Mn24  1  0.84598000  0.49138000  0.91668000  1.0
  Mn  Mn25  1  0.61840000  0.74138000  0.08335000  1.0
  Mn  Mn26  1  0.11840000  0.53099000  0.75002000  1.0
  Mn  Mn27  1  0.84598000  0.99138000  0.58335000  1.0
  Mn  Mn28  1  0.34598000  0.28099000  0.25002000  1.0
  Mn  Mn29  1  0.34598000  0.78099000  0.58335000  1.0
  Mn  Mn30  1  0.11840000  0.03099000  0.41668000  1.0
  Mn  Mn31  1  0.61840000  0.24138000  0.08335000  1.0
  Mn  Mn32  1  0.61840000  0.74138000  0.41668000  1.0
  Mn  Mn33  1  0.84598000  0.49138000  0.25002000  1.0
  Mn  Mn34  1  0.34598000  0.78099000  0.91668000  1.0
  Mn  Mn35  1  0.11840000  0.53099000  0.41668000  1.0
  Mn  Mn36  1  0.61840000  0.24138000  0.75002000  1.0
  Mn  Mn37  1  0.61840000  0.74138000  0.75002000  1.0
  Mn  Mn38  1  0.61840000  0.24138000  0.41668000  1.0
  Mn  Mn39  1  0.34598000  0.78099000  0.25002000  1.0
  Mn  Mn40  1  0.11840000  0.53099000  0.08335000  1.0
  Mn  Mn41  1  0.11840000  0.03099000  0.08335000  1.0
  Mn  Mn42  1  0.84598000  0.99138000  0.25002000  1.0
  Mn  Mn43  1  0.84598000  0.99138000  0.91668000  1.0
  Mn  Mn44  1  0.34598000  0.28099000  0.58335000  1.0
  Mn  Mn45  1  0.84598000  0.49138000  0.58335000  1.0
  Mn  Mn46  1  0.34598000  0.28099000  0.91668000  1.0
  Mn  Mn47  1  0.11840000  0.03099000  0.75002000  1.0
  O  O48  1  0.01149000  0.12081000  0.25002000  1.0
  O  O49  1  0.45289000  0.37081000  0.08335000  1.0
  O  O50  1  0.51149000  0.15156000  0.25002000  1.0
  O  O51  1  0.95289000  0.40156000  0.08335000  1.0
  O  O52  1  0.25848000  0.17833000  0.08335000  1.0
  O  O53  1  0.20590000  0.42833000  0.25002000  1.0
  O  O54  1  0.75848000  0.09404000  0.08335000  1.0
  O  O55  1  0.70590000  0.34404000  0.25002000  1.0
  O  O56  1  0.01149000  0.62081000  0.25002000  1.0
  O  O57  1  0.45289000  0.87081000  0.08335000  1.0
  O  O58  1  0.51149000  0.65156000  0.25002000  1.0
  O  O59  1  0.95289000  0.90156000  0.08335000  1.0
  O  O60  1  0.25848000  0.67833000  0.08335000  1.0
  O  O61  1  0.20590000  0.92833000  0.25002000  1.0
  O  O62  1  0.75848000  0.59404000  0.08335000  1.0
  O  O63  1  0.70590000  0.84404000  0.25002000  1.0
  O  O64  1  0.01149000  0.12081000  0.58335000  1.0
  O  O65  1  0.45289000  0.37081000  0.41668000  1.0
  O  O66  1  0.51149000  0.15156000  0.58335000  1.0
  O  O67  1  0.95289000  0.40156000  0.41668000  1.0
  O  O68  1  0.25848000  0.17833000  0.41668000  1.0
  O  O69  1  0.20590000  0.42833000  0.58335000  1.0
  O  O70  1  0.75848000  0.09404000  0.41668000  1.0
  O  O71  1  0.70590000  0.34404000  0.58335000  1.0
  O  O72  1  0.01149000  0.62081000  0.58335000  1.0
  O  O73  1  0.45289000  0.87081000  0.41668000  1.0
  O  O74  1  0.51149000  0.65156000  0.58335000  1.0
  O  O75  1  0.95289000  0.90156000  0.41668000  1.0
  O  O76  1  0.25848000  0.67833000  0.41668000  1.0
  O  O77  1  0.20590000  0.92833000  0.58335000  1.0
  O  O78  1  0.75848000  0.59404000  0.41668000  1.0
  O  O79  1  0.70590000  0.84404000  0.58335000  1.0
  O  O80  1  0.01149000  0.12081000  0.91668000  1.0
  O  O81  1  0.45289000  0.37081000  0.75002000  1.0
  O  O82  1  0.51149000  0.15156000  0.91668000  1.0
  O  O83  1  0.95289000  0.40156000  0.75002000  1.0
  O  O84  1  0.25848000  0.17833000  0.75002000  1.0
  O  O85  1  0.20590000  0.42833000  0.91668000  1.0
  O  O86  1  0.75848000  0.09404000  0.75002000  1.0
  O  O87  1  0.70590000  0.34404000  0.91668000  1.0
  O  O88  1  0.01149000  0.62081000  0.91668000  1.0
  O  O89  1  0.45289000  0.87081000  0.75002000  1.0
  O  O90  1  0.51149000  0.65156000  0.91668000  1.0
  O  O91  1  0.95289000  0.90156000  0.75002000  1.0
  O  O92  1  0.25848000  0.67833000  0.75002000  1.0
  O  O93  1  0.20590000  0.92833000  0.91668000  1.0
  O  O94  1  0.75848000  0.59404000  0.75002000  1.0
  O  O95  1  0.70590000  0.84404000  0.91668000  1.0
