# generated using pymatgen
data_Li31Mn12O24
_symmetry_space_group_name_H-M   'P 1'
_cell_length_a   9.89130000
_cell_length_b   9.86820000
_cell_length_c   8.93220000
_cell_angle_alpha   90.00000000
_cell_angle_beta   90.00000000
_cell_angle_gamma   90.00000000
_symmetry_Int_Tables_number   1
_chemical_formula_structural   Li31Mn12O24
_chemical_formula_sum   'Li62 Mn24 O48'
_cell_volume   871.86602759
_cell_formula_units_Z   2
loop_
 _symmetry_equiv_pos_site_id
 _symmetry_equiv_pos_as_xyz
  1  'x, y, z'
loop_
 _atom_site_type_symbol
 _atom_site_label
 _atom_site_symmetry_multiplicity
 _atom_site_fract_x
 _atom_site_fract_y
 _atom_site_fract_z
 _atom_site_occupancy
  Li  Li0  1  0.97889707  0.74018081  0.79484127  1
  Li  Li1  1  0.97827354  0.75990226  0.56500000  1
  Li  Li2  1  0.97871993  0.75312714  0.17500000  1
  Li  Li3  1  0.97871993  0.25312714  0.32500000  1
  Li  Li4  1  0.47872092  0.50312714  0.67500000  1
  Li  Li5  1  0.47748009  0.97562657  0.27833333  1
  Li  Li6  1  0.47748045  0.97578321  0.20555556  1
  Li  Li7  1  0.48025400  0.02621628  0.43284314  1
  Li  Li8  1  0.47872092  0.50312714  0.82500000  1
  Li  Li9  1  0.47770595  0.97585441  0.93560606  1
  Li  Li10  1  0.97854298  0.26169889  0.20515873  1
  Li  Li11  1  0.97916672  0.24197744  0.43500000  1
  Li  Li12  1  0.97872043  0.24875256  0.82500000  1
  Li  Li13  1  0.97872043  0.74875256  0.67500000  1
  Li  Li14  1  0.47872142  0.49875256  0.32500000  1
  Li  Li15  1  0.48011764  0.02629229  0.72812500  1
  Li  Li16  1  0.47718831  0.97566342  0.56715686  1
  Li  Li17  1  0.47872142  0.49875256  0.17500000  1
  Li  Li18  1  0.47973590  0.02602529  0.06439394  1
  Li  Li19  1  0.47916759  0.50990226  0.43500000  1
  Li  Li20  1  0.97925220  0.73678840  0.05238095  1
  Li  Li21  1  0.48021058  0.02631579  0.13833333  1
  Li  Li22  1  0.97872043  0.24875256  0.67500000  1
  Li  Li23  1  0.97854298  0.76169889  0.29484127  1
  Li  Li24  1  0.97916672  0.74197744  0.43500000  1
  Li  Li25  1  0.97818837  0.76509130  0.94761905  1
  Li  Li26  1  0.47996454  0.02687970  0.99166667  1
  Li  Li27  1  0.47797727  0.48600251  0.94166667  1
  Li  Li28  1  0.97809920  0.26312657  0.95694444  1
  Li  Li29  1  0.97827354  0.25990226  0.56500000  1
  Li  Li30  1  0.47723186  0.97556391  0.63833333  1
  Li  Li31  1  0.47723186  0.97556391  0.86166667  1
  Li  Li32  1  0.48021058  0.02631579  0.36166667  1
  Li  Li33  1  0.47827485  0.49197744  0.56500000  1
  Li  Li34  1  0.47925220  0.51509130  0.05238095  1
  Li  Li35  1  0.97925220  0.23678840  0.05238095  1
  Li  Li36  1  0.48021058  0.02631579  0.80500000  1
  Li  Li37  1  0.47747863  0.97500000  0.00833333  1
  Li  Li38  1  0.57385000  0.47843000  0.25002000  1.0
  Li  Li39  1  0.89053000  0.22843000  0.41668000  1.0
  Li  Li40  1  0.39053000  0.04394000  0.75002000  1.0
  Li  Li41  1  0.89053000  0.72843000  0.41668000  1.0
  Li  Li42  1  0.07385000  0.79394000  0.25002000  1.0
  Li  Li43  1  0.07385000  0.29394000  0.25002000  1.0
  Li  Li44  1  0.89053000  0.22843000  0.08335000  1.0
  Li  Li45  1  0.39053000  0.54394000  0.75002000  1.0
  Li  Li46  1  0.89053000  0.22843000  0.75002000  1.0
  Li  Li47  1  0.07385000  0.29394000  0.58335000  1.0
  Li  Li48  1  0.89053000  0.72843000  0.75002000  1.0
  Li  Li49  1  0.57385000  0.47843000  0.91668000  1.0
  Li  Li50  1  0.07385000  0.79394000  0.91668000  1.0
  Li  Li51  1  0.39053000  0.04394000  0.41668000  1.0
  Li  Li52  1  0.39053000  0.54394000  0.08335000  1.0
  Li  Li53  1  0.57385000  0.47843000  0.58335000  1.0
  Li  Li54  1  0.89053000  0.72843000  0.08335000  1.0
  Li  Li55  1  0.39053000  0.54394000  0.41668000  1.0
  Li  Li56  1  0.07385000  0.79394000  0.58335000  1.0
  Li  Li57  1  0.57385000  0.97843000  0.91668000  1.0
  Li  Li58  1  0.39053000  0.04394000  0.08335000  1.0
  Li  Li59  1  0.57385000  0.97843000  0.25002000  1.0
  Li  Li60  1  0.07385000  0.29394000  0.91668000  1.0
  Li  Li61  1  0.57385000  0.97843000  0.58335000  1.0
  Mn  Mn62  1  0.84598000  0.49138000  0.91668000  1.0
  Mn  Mn63  1  0.61840000  0.74138000  0.08335000  1.0
  Mn  Mn64  1  0.11840000  0.53099000  0.75002000  1.0
  Mn  Mn65  1  0.84598000  0.99138000  0.58335000  1.0
  Mn  Mn66  1  0.34598000  0.28099000  0.25002000  1.0
  Mn  Mn67  1  0.34598000  0.78099000  0.58335000  1.0
  Mn  Mn68  1  0.11840000  0.03099000  0.41668000  1.0
  Mn  Mn69  1  0.61840000  0.24138000  0.08335000  1.0
  Mn  Mn70  1  0.61840000  0.74138000  0.41668000  1.0
  Mn  Mn71  1  0.84598000  0.49138000  0.25002000  1.0
  Mn  Mn72  1  0.34598000  0.78099000  0.91668000  1.0
  Mn  Mn73  1  0.11840000  0.53099000  0.41668000  1.0
  Mn  Mn74  1  0.61840000  0.24138000  0.75002000  1.0
  Mn  Mn75  1  0.61840000  0.74138000  0.75002000  1.0
  Mn  Mn76  1  0.61840000  0.24138000  0.41668000  1.0
  Mn  Mn77  1  0.34598000  0.78099000  0.25002000  1.0
  Mn  Mn78  1  0.11840000  0.53099000  0.08335000  1.0
  Mn  Mn79  1  0.11840000  0.03099000  0.08335000  1.0
  Mn  Mn80  1  0.84598000  0.99138000  0.25002000  1.0
  Mn  Mn81  1  0.84598000  0.99138000  0.91668000  1.0
  Mn  Mn82  1  0.34598000  0.28099000  0.58335000  1.0
  Mn  Mn83  1  0.84598000  0.49138000  0.58335000  1.0
  Mn  Mn84  1  0.34598000  0.28099000  0.91668000  1.0
  Mn  Mn85  1  0.11840000  0.03099000  0.75002000  1.0
  O  O86  1  0.01149000  0.12081000  0.25002000  1.0
  O  O87  1  0.45289000  0.37081000  0.08335000  1.0
  O  O88  1  0.51149000  0.15156000  0.25002000  1.0
  O  O89  1  0.95289000  0.40156000  0.08335000  1.0
  O  O90  1  0.25848000  0.17833000  0.08335000  1.0
  O  O91  1  0.20590000  0.42833000  0.25002000  1.0
  O  O92  1  0.75848000  0.09404000  0.08335000  1.0
  O  O93  1  0.70590000  0.34404000  0.25002000  1.0
  O  O94  1  0.01149000  0.62081000  0.25002000  1.0
  O  O95  1  0.45289000  0.87081000  0.08335000  1.0
  O  O96  1  0.51149000  0.65156000  0.25002000  1.0
  O  O97  1  0.95289000  0.90156000  0.08335000  1.0
  O  O98  1  0.25848000  0.67833000  0.08335000  1.0
  O  O99  1  0.20590000  0.92833000  0.25002000  1.0
  O  O100  1  0.75848000  0.59404000  0.08335000  1.0
  O  O101  1  0.70590000  0.84404000  0.25002000  1.0
  O  O102  1  0.01149000  0.12081000  0.58335000  1.0
  O  O103  1  0.45289000  0.37081000  0.41668000  1.0
  O  O104  1  0.51149000  0.15156000  0.58335000  1.0
  O  O105  1  0.95289000  0.40156000  0.41668000  1.0
  O  O106  1  0.25848000  0.17833000  0.41668000  1.0
  O  O107  1  0.20590000  0.42833000  0.58335000  1.0
  O  O108  1  0.75848000  0.09404000  0.41668000  1.0
  O  O109  1  0.70590000  0.34404000  0.58335000  1.0
  O  O110  1  0.01149000  0.62081000  0.58335000  1.0
  O  O111  1  0.45289000  0.87081000  0.41668000  1.0
  O  O112  1  0.51149000  0.65156000  0.58335000  1.0
  O  O113  1  0.95289000  0.90156000  0.41668000  1.0
  O  O114  1  0.25848000  0.67833000  0.41668000  1.0
  O  O115  1  0.20590000  0.92833000  0.58335000  1.0
  O  O116  1  0.75848000  0.59404000  0.41668000  1.0
  O  O117  1  0.70590000  0.84404000  0.58335000  1.0
  O  O118  1  0.01149000  0.12081000  0.91668000  1.0
  O  O119  1  0.45289000  0.37081000  0.75002000  1.0
  O  O120  1  0.51149000  0.15156000  0.91668000  1.0
  O  O121  1  0.95289000  0.40156000  0.75002000  1.0
  O  O122  1  0.25848000  0.17833000  0.75002000  1.0
  O  O123  1  0.20590000  0.42833000  0.91668000  1.0
  O  O124  1  0.75848000  0.09404000  0.75002000  1.0
  O  O125  1  0.70590000  0.34404000  0.91668000  1.0
  O  O126  1  0.01149000  0.62081000  0.91668000  1.0
  O  O127  1  0.45289000  0.87081000  0.75002000  1.0
  O  O128  1  0.51149000  0.65156000  0.91668000  1.0
  O  O129  1  0.95289000  0.90156000  0.75002000  1.0
  O  O130  1  0.25848000  0.67833000  0.75002000  1.0
  O  O131  1  0.20590000  0.92833000  0.91668000  1.0
  O  O132  1  0.75848000  0.59404000  0.75002000  1.0
  O  O133  1  0.70590000  0.84404000  0.91668000  1.0
