data_cif

_audit_creation_method             'generated by GULP'

_symmetry_space_group_name_H-M     'P 1'
_symmetry_Int_Tables_number        1
_symmetry_cell_setting             triclinic

_cell_length_a                        8.8435
_cell_length_b                        9.4194
_cell_length_c                        8.5592
_cell_angle_alpha                   90.0000
_cell_angle_beta                    90.0000
_cell_angle_gamma                   90.0000

loop_
_atom_site_label
_atom_site_fract_x
_atom_site_fract_y
_atom_site_fract_z
_atom_site_occupancy
  Mn          0.12030      0.00650      0.08333  1.0000
  Mn          0.33714      0.25650      0.25000  1.0000
  Mn          0.62030      0.24538      0.08333  1.0000
  Mn          0.83714      0.49538      0.25000  1.0000
  Mn          0.12030      0.50650      0.08333  1.0000
  Mn          0.33714      0.75650      0.25000  1.0000
  Mn          0.62030      0.74538      0.08333  1.0000
  Mn          0.83714      0.99538      0.25000  1.0000
  Mn          0.12030      0.00650      0.41666  1.0000
  Mn          0.33714      0.25650      0.58333  1.0000
  Mn          0.62030      0.24538      0.41666  1.0000
  Mn          0.83714      0.49538      0.58333  1.0000
  Mn          0.12030      0.50650      0.41666  1.0000
  Mn          0.33714      0.75650      0.58333  1.0000
  Mn          0.62030      0.74538      0.41666  1.0000
  Mn          0.83714      0.99538      0.58333  1.0000
  Mn          0.12030      0.00650      0.75000  1.0000
  Mn          0.33714      0.25650      0.91666  1.0000
  Mn          0.62030      0.24538      0.75000  1.0000
  Mn          0.83714      0.49538      0.91666  1.0000
  Mn          0.12030      0.50650      0.75000  1.0000
  Mn          0.33714      0.75650      0.91666  1.0000
  Mn          0.62030      0.74538      0.75000  1.0000
  Mn          0.83714      0.99538      0.91666  1.0000
  O           0.02594      0.10128      0.25000  1.0000
  O           0.43150      0.35128      0.08333  1.0000
  O           0.52594      0.15060      0.25000  1.0000
  O           0.93150      0.40060      0.08333  1.0000
  O           0.25265      0.15531      0.08333  1.0000
  O           0.20479      0.40531      0.25000  1.0000
  O           0.75265      0.09657      0.08333  1.0000
  O           0.70479      0.34657      0.25000  1.0000
  O           0.02594      0.60128      0.25000  1.0000
  O           0.43150      0.85128      0.08333  1.0000
  O           0.52594      0.65060      0.25000  1.0000
  O           0.93150      0.90060      0.08333  1.0000
  O           0.25265      0.65531      0.08333  1.0000
  O           0.20479      0.90531      0.25000  1.0000
  O           0.75265      0.59657      0.08333  1.0000
  O           0.70479      0.84657      0.25000  1.0000
  O           0.02594      0.10128      0.58333  1.0000
  O           0.43150      0.35128      0.41666  1.0000
  O           0.52594      0.15060      0.58333  1.0000
  O           0.93150      0.40060      0.41666  1.0000
  O           0.25265      0.15531      0.41666  1.0000
  O           0.20479      0.40531      0.58333  1.0000
  O           0.75265      0.09657      0.41666  1.0000
  O           0.70479      0.34657      0.58333  1.0000
  O           0.02594      0.60128      0.58333  1.0000
  O           0.43150      0.85128      0.41666  1.0000
  O           0.52594      0.65060      0.58333  1.0000
  O           0.93150      0.90060      0.41666  1.0000
  O           0.25265      0.65531      0.41666  1.0000
  O           0.20479      0.90531      0.58333  1.0000
  O           0.75265      0.59657      0.41666  1.0000
  O           0.70479      0.84657      0.58333  1.0000
  O           0.02594      0.10128      0.91666  1.0000
  O           0.43150      0.35128      0.75000  1.0000
  O           0.52594      0.15060      0.91666  1.0000
  O           0.93150      0.40060      0.75000  1.0000
  O           0.25265      0.15531      0.75000  1.0000
  O           0.20479      0.40531      0.91666  1.0000
  O           0.75265      0.09657      0.75000  1.0000
  O           0.70479      0.34657      0.91666  1.0000
  O           0.02594      0.60128      0.91666  1.0000
  O           0.43150      0.85128      0.75000  1.0000
  O           0.52594      0.65060      0.91666  1.0000
  O           0.93150      0.90060      0.75000  1.0000
  O           0.25265      0.65531      0.75000  1.0000
  O           0.20479      0.90531      0.91666  1.0000
  O           0.75265      0.59657      0.75000  1.0000
  O           0.70479      0.84657      0.91666  1.0000
