data_cif

_audit_creation_method             'generated by GULP'

_symmetry_space_group_name_H-M     'P 1'
_symmetry_Int_Tables_number        1
_symmetry_cell_setting             triclinic

_cell_length_a                        8.8729
_cell_length_b                        9.4325
_cell_length_c                        8.5658
_cell_angle_alpha                   90.0000
_cell_angle_beta                    90.0000
_cell_angle_gamma                   90.0000

loop_
_atom_site_label
_atom_site_fract_x
_atom_site_fract_y
_atom_site_fract_z
_atom_site_occupancy
  Tc          0.83739      0.49349      0.91668  1.0000
  Tc          0.62030      0.74349      0.08333  1.0000
  Tc          0.12030      0.50649      0.75001  1.0000
  Tc          0.83739      0.99349      0.58334  1.0000
  Tc          0.33739      0.25650      0.25000  1.0000
  Tc          0.33739      0.75649      0.58334  1.0000
  Tc          0.12030      0.00650      0.41668  1.0000
  Tc          0.62030      0.24350      0.08333  1.0000
  Tc          0.62030      0.74349      0.41668  1.0000
  Tc          0.83739      0.49349      0.25000  1.0000
  Tc          0.33739      0.75649      0.91668  1.0000
  Tc          0.12030      0.50649      0.41668  1.0000
  Tc          0.62030      0.24350      0.75001  1.0000
  Tc          0.62030      0.74349      0.75001  1.0000
  Tc          0.62030      0.24350      0.41668  1.0000
  Tc          0.33739      0.75649      0.25000  1.0000
  Tc          0.12030      0.50649      0.08333  1.0000
  Tc          0.12030      0.00650      0.08333  1.0000
  Tc          0.83739      0.99349      0.25000  1.0000
  Tc          0.83739      0.99349      0.91668  1.0000
  Tc          0.33739      0.25650      0.58334  1.0000
  Tc          0.83739      0.49349      0.58334  1.0000
  Tc          0.33739      0.25650      0.91668  1.0000
  Tc          0.12030      0.00650      0.75001  1.0000
  Li          0.46433      0.61661      0.10507  1.0000
  Li          0.92867      0.23324      0.33334  1.0000
  Li          0.58042      0.00000      0.54348  1.0000
  Li          0.81259      0.73323      0.66668  1.0000
  Li          0.00000      0.61661      0.10507  1.0000
  Li          0.00000      0.34986      0.21014  1.0000
  Li          0.81259      0.23324      0.10507  1.0000
  Li          0.34825      0.61661      0.66668  1.0000
  Li          0.81259      0.34986      0.54348  1.0000
  Li          0.00000      0.49999      0.66668  1.0000
  Li          0.92867      0.61661      0.77174  1.0000
  Li          0.34825      0.49999      0.77174  1.0000
  Li          0.00000      0.61661      0.77174  1.0000
  Li          0.46433      0.00000      0.77174  1.0000
  Li          0.69650      0.49999      0.87681  1.0000
  Li          0.69650      0.49999      0.43841  1.0000
  Li          0.81259      0.73323      0.87681  1.0000
  Li          0.58042      0.49999      0.21014  1.0000
  Li          0.92867      0.61661      0.66668  1.0000
  Li          0.69650      0.00000      0.66668  1.0000
  Li          0.46433      0.23324      0.77174  1.0000
  Li          0.34825      0.84985      0.00000  1.0000
  Li          0.00000      0.23324      0.00000  1.0000
  Li          0.69650      0.00000      0.54348  1.0000
  O           0.02537      0.09995      0.25000  1.0000
  O           0.43232      0.34995      0.08333  1.0000
  O           0.52537      0.15005      0.25000  1.0000
  O           0.93232      0.40005      0.08333  1.0000
  O           0.25179      0.15595      0.08333  1.0000
  O           0.20590      0.40595      0.25000  1.0000
  O           0.75179      0.09405      0.08333  1.0000
  O           0.70590      0.34405      0.25000  1.0000
  O           0.02537      0.59994      0.25000  1.0000
  O           0.43232      0.84994      0.08333  1.0000
  O           0.52537      0.65004      0.25000  1.0000
  O           0.93232      0.90004      0.08333  1.0000
  O           0.25179      0.65594      0.08333  1.0000
  O           0.20590      0.90594      0.25000  1.0000
  O           0.75179      0.59404      0.08333  1.0000
  O           0.70590      0.84404      0.25000  1.0000
  O           0.02537      0.09995      0.58334  1.0000
  O           0.43232      0.34995      0.41668  1.0000
  O           0.52537      0.15005      0.58334  1.0000
  O           0.93232      0.40005      0.41668  1.0000
  O           0.25179      0.15595      0.41668  1.0000
  O           0.20590      0.40595      0.58334  1.0000
  O           0.75179      0.09405      0.41668  1.0000
  O           0.70590      0.34405      0.58334  1.0000
  O           0.02537      0.59994      0.58334  1.0000
  O           0.43232      0.84994      0.41668  1.0000
  O           0.52537      0.65004      0.58334  1.0000
  O           0.93232      0.90004      0.41668  1.0000
  O           0.25179      0.65594      0.41668  1.0000
  O           0.20590      0.90594      0.58334  1.0000
  O           0.75179      0.59404      0.41668  1.0000
  O           0.70590      0.84404      0.58334  1.0000
  O           0.02537      0.09995      0.91668  1.0000
  O           0.43232      0.34995      0.75001  1.0000
  O           0.52537      0.15005      0.91668  1.0000
  O           0.93232      0.40005      0.75001  1.0000
  O           0.25179      0.15595      0.75001  1.0000
  O           0.20590      0.40595      0.91668  1.0000
  O           0.75179      0.09405      0.75001  1.0000
  O           0.70590      0.34405      0.91668  1.0000
  O           0.02537      0.59994      0.91668  1.0000
  O           0.43232      0.84994      0.75001  1.0000
  O           0.52537      0.65004      0.91668  1.0000
  O           0.93232      0.90004      0.75001  1.0000
  O           0.25179      0.65594      0.75001  1.0000
  O           0.20590      0.90594      0.91668  1.0000
  O           0.75179      0.59404      0.75001  1.0000
  O           0.70590      0.84404      0.91668  1.0000
